tests/data/power_flow/pandapower/components/pp-sym-line/pgm_sym_output.json
{
  "line": [
    {
      "id": 3,
      "energized": 1,
      "loading": 0.007529695361752953,
      "p_from": 10039.7255341467,
      "q_from": -136572.3804509955,
      "i_from": 7.529695361752953,
      "s_from": 136940.90400918367,
      "p_to": -10007.249573837704,
      "q_to": 101954.6612535818,
      "i_to": 5.6318263193851426,
      "s_to": 102444.60940120612
    },
    {
      "id": 6,
      "energized": 1,
      "loading": 0.0037406487247614462,
      "p_from": 10006.569172160176,
      "q_from": -67303.71049449274,
      "i_from": 3.740648724761446,
      "s_from": 68043.5219027037,
      "p_to": -10000.680494414164,
      "q_to": 32655.66024784769,
      "i_to": 1.8773941418390865,
      "s_to": 34152.683006964704
    },
    {
      "id": 7,
      "energized": 1,
      "loading": 0.0019049136665692532,
      "p_from": 0.6804018894785091,
      "q_from": -34650.95075914744,
      "i_from": 1.9049136665692532,
      "s_from": 34650.95076582758,
      "p_to": 0.0,
      "q_to": 0.0,
      "i_to": 0.0,
      "s_to": 0.0
    },
    {
      "id": 8,
      "energized": 1,
      "loading": 0.0019050431127229637,
      "p_from": 0.0,
      "q_from": 0.0,
      "i_from": 0.0,
      "s_from": 0.0,
      "p_to": 0.6804943644306807,
      "q_to": -34655.66024785343,
      "i_to": 1.9050431127229637,
      "s_to": 34655.66025453448
    }
  ],
  "node": [
    {
      "id": 1,
      "energized": 1,
      "u_pu": 1.0000134893760244,
      "u": 10500.141638448256,
      "u_angle": -2.357904198984447e-06
    },
    {
      "id": 2,
      "energized": 1,
      "u_pu": 1.000207096167117,
      "u": 10502.174509754728,
      "u_angle": -0.00029092387784724857
    },
    {
      "id": 5,
      "energized": 1,
      "u_pu": 1.0002750640565727,
      "u": 10502.888172594014,
      "u_angle": -0.0004223429605410385
    }
  ],
  "source": [
    {
      "id": 4,
      "energized": 1,
      "p": 10039.725534009322,
      "q": -136572.38045221538,
      "i": 7.529695361819294,
      "s": 136940.9040103902,
      "pf": 0.07331429280799528
    }
  ],
  "sym_load": [
    {
      "id": 9,
      "energized": 1,
      "p": 10000.0,
      "q": 2000.0,
      "i": 0.5605925228181986,
      "s": 10198.03902718557,
      "pf": 0.9805806756909201
    }
  ]
}