tests/data/power_flow/pandapower/components/pp-sym-line/sym_output.json
{
  "line": [
    {
      "id": 3,
      "loading": 0.007529695362031805,
      "p_from": 10039.72553102032,
      "q_from": -136572.38045631046,
      "i_from": 7.529695362031805,
      "s_from": 136940.90401425512,
      "p_to": -10007.249570765536,
      "q_to": 101954.6612589271,
      "i_to": 5.631826319660995,
      "s_to": 102444.60940622573
    },
    {
      "id": 6,
      "loading": 0.0037406487250184334,
      "p_from": 10006.569173352584,
      "q_from": -67303.71049904272,
      "i_from": 3.7406487250184335,
      "s_from": 68043.52190737956,
      "p_to": -10000.68049560589,
      "q_to": 32655.66025242627,
      "i_to": 1.8773941420988813,
      "s_to": 34152.68301169155
    },
    {
      "id": 7,
      "loading": 0.0019049136666332552,
      "p_from": 0.6804023592303693,
      "q_from": -34650.95076031224,
      "i_from": 1.904913666633255,
      "s_from": 34650.95076699239,
      "p_to": -4.5446154019291714e-07,
      "q_to": 1.1941466448335121e-06,
      "i_to": 7.023861727503731e-11,
      "s_to": 1.2777016478355391e-06
    },
    {
      "id": 8,
      "loading": 0.0019050431128363834,
      "p_from": -7.951067659253919e-07,
      "q_from": 2.047357517052587e-06,
      "i_from": 1.207298541356856e-10,
      "s_from": 2.196330478742229e-06,
      "p_to": 0.6804951794540529,
      "q_to": -34655.660249917484,
      "i_to": 1.9050431128363834,
      "s_to": 34655.66025659855
    }
  ],
  "node": [
    {
      "id": 1,
      "u_pu": 1.0000134893760249,
      "u": 10500.14163844826,
      "u_angle": -2.3579041985447706e-06
    },
    {
      "id": 2,
      "u_pu": 1.000207096167134,
      "u": 10502.174509754908,
      "u_angle": -0.00029092387785318295
    },
    {
      "id": 5,
      "u_pu": 1.0002750640565956,
      "u": 10502.888172594254,
      "u_angle": -0.0004223429605596303
    }
  ],
  "source": [
    {
      "id": 4,
      "p": 10039.725529144462,
      "q": -136572.3804567652,
      "i": 7.529695362049178,
      "s": 136940.9040145711
    }
  ],
  "sym_load": [
    {
      "id": 9,
      "p": 10000.0,
      "q": 2000.0
    }
  ]
}